/*---------------------------------------------------------------------------*\
| =========                 |                                                 |
| \\      /  F ield         | OpenFOAM: The Open Source CFD Toolbox           |
|  \\    /   O peration     | Version:  1.4                                   |
|   \\  /    A nd           | Web:      http://www.openfoam.org               |
|    \\/     M anipulation  |                                                 |
\*---------------------------------------------------------------------------*/

// Field Dictionary

FoamFile
{
    version         2.0;
    format          ascii;
    class           volScalarField;
    object          uMax;
}

// * * * * * * * * * * * * * * * * * * * * * * * * * * * * * * * * * * * * * //


//dimensions      [1 -1 -3 0 0 0 0];
dimensions	[0 0 0 0 0 0 0];

internalField   uniform -1E8;

boundaryField
{


    top
    {
	type		calculated;
	value		$internalField;
    }

    bottom
    {
	type		calculated;
	value		$internalField;
    }

    left
    {
	type		calculated;
	value		$internalField;
    }

    right
    {
	type		calculated;
	value		$internalField;
    }


    backAndFront           
    {
        type            empty;
    }
}
// ************************************************************************* //
