/*--------------------------------*- C++ -*----------------------------------*\
| =========                 |                                                 |
| \\      /  F ield         | OpenFOAM: The Open Source CFD Toolbox           |
|  \\    /   O peration     | Version:  v1806                                 |
|   \\  /    A nd           | Web:      www.OpenFOAM.com                      |
|    \\/     M anipulation  |                                                 |
\*---------------------------------------------------------------------------*/
FoamFile
{
    version     2.0;
    format      ascii;
    class       polyBoundaryMesh;
    location    "constant/polyMesh";
    object      boundary;
}
// * * * * * * * * * * * * * * * * * * * * * * * * * * * * * * * * * * * * * //

5
(
    backAndFront
    {
        type            empty;
        physicalType    empty;
        nFaces          722;
        startFace       684;
    }
    bottom
    {
        type            patch;
        physicalType    patch;
        nFaces          19;
        startFace       1406;
    }
    right
    {
        type            patch;
        physicalType    patch;
        nFaces          19;
        startFace       1425;
    }
    top
    {
        type            patch;
        physicalType    patch;
        nFaces          19;
        startFace       1444;
    }
    left
    {
        type            patch;
        physicalType    patch;
        nFaces          19;
        startFace       1463;
    }
)

// ************************************************************************* //
