/*---------------------------------------------------------------------------*\
| =========                 |                                                 |
| \\      /  F ield         | OpenFOAM: The Open Source CFD Toolbox           |
|  \\    /   O peration     | Version:  1.4                                   |
|   \\  /    A nd           | Web:      http://www.openfoam.org               |
|    \\/     M anipulation  |                                                 |
\*---------------------------------------------------------------------------*/

// Field Dictionary

FoamFile
{
    version 2.0;
    format ascii;
    class volScalarField;
    object lambda;
}

// * * * * * * * * * * * * * * * * * * * * * * * * * * * * * * * * * * * * * //
#include "../include/simulationParameters"

//dimensions      [-1 1 3 2 0 0 0];
dimensions [0 0 0 0 0 0 0];

internalField uniform 0;




boundaryField
{
    left
    {
        type fixedValue;
        value uniform 0;
    }

    top
    {
        type zeroGradient;
    }

    bottom
    {
        type zeroGradient;
    }

    right
    {
        type robin;
        beta $beta; // exchange coefficient
        value uniform 0.0;
    }

    backAndFront
    {
        type empty;
    }
}
// ************************************************************************* //
